*Heading
** Job name: GNL-FEA-3-2
** Generated by: Abaqus/CAE 2023.HF4
*Preprint, echo=NO, model=NO, history=NO, contact=NO
**
** PARTS
**
*Part, name=PART-1-1
*Node
      1,   7.80000019,   7.49710989, 0.0979999974
      2,   7.80000019,    7.4749999, 0.0979999974
      3,           0.,    7.4749999, 0.0979999974
      4,           0.,   7.49710989, 0.0979999974
      5,   7.80000019,    7.4749999, 5.50388002e-09
      6,           0.,    7.4749999,           0.
      7,   7.80000019,   6.82499981, 5.49230217e-09
      8,           0.,   6.82499981,           0.
      9,           0.,    7.1500001,           0.
     10,   7.80000019,    7.1500001, -1.18782319e-11
     11,   7.80000019,   6.17500019, 5.48192158e-09
     12,           0.,   6.17500019,           0.
     13,           0.,          6.5,           0.
     14,   7.80000019,          6.5, -2.2954862e-11
     15,   7.80000019,    5.5250001, 5.4734457e-09
     16,           0.,    5.5250001,           0.
     17,           0.,    5.8499999,           0.
     18,   7.80000019,    5.8499999, -3.24616306e-11
     19,   7.80000019,        4.875, 5.46745271e-09
     20,           0.,        4.875,           0.
** ... 34834 like lines cut
*Element, type=S4R
    1,     1,     2,    99,   408
    2,   408,    99,   100,   407
    3,   407,   100,   101,   406
    4,   406,   101,   102,   405
    5,   405,   102,   103,   404
    6,   404,   103,   104,   403
    7,   403,   104,   105,   402
    8,   402,   105,   106,   401
    9,   401,   106,   107,   400
   10,   400,   107,   108,   399
   11,   399,   108,   109,   398
   12,   398,   109,   110,   397
   13,   397,   110,   111,   396
   14,   396,   111,   112,   395
   15,   395,   112,   113,   394
   16,   394,   113,   114,   393
   17,   393,   114,   115,   392
   18,   392,   115,   116,   391
   19,   391,   116,   117,   390
   20,   390,   117,   118,   389
** ... 34456 like lines cut
*Nset, nset=SET-PLATEWEB
     2,     3,     5,     6,     7,     8,     9,    10,    11,    12,    13,    14,    15,    16,    17,    18
    19,    20,    21,    22,    23,    24,    25,    26,    27,    28,    29,    30,    31,    32,    33,    34
    35,    36,    37,    38,    39,    40,    41,    42,    43,    44,    45,    46,    47,    48,    49,    50
    51,    52,    56,    57,    60,    61,    64,    65,    68,    69,    72,    73,    76,    77,    80,    81
    84,    85,    88,    89,    92,    93,    95,    96,    97,    98,    99,   100,   101,   102,   103,   104
   105,   106,   107,   108,   109,   110,   111,   112,   113,   114,   115,   116,   117,   118,   119,   120
   121,   122,   123,   124,   125,   126,   127,   128,   129,   130,   131,   132,   133,   134,   135,   136
   137,   138,   139,   140,   141,   142,   143,   144,   145,   146,   147,   148,   149,   150,   151,   152
   153,   154,   155,   156,   157,   158,   159,   160,   161,   162,   163,   164,   165,   166,   167,   168
   169,   170,   171,   172,   173,   174,   175,   176,   177,   178,   179,   180,   181,   182,   183,   184
   185,   186,   187,   188,   189,   190,   191,   192,   193,   194,   195,   196,   197,   198,   199,   200
   201,   202,   203,   204,   205,   206,   207,   208,   209,   210,   211,   212,   213,   214,   215,   216
   217,   218,   219,   220,   221,   222,   223,   224,   225,   226,   227,   228,   229,   230,   231,   232
   233,   234,   235,   236,   237,   238,   239,   240,   241,   242,   243,   244,   245,   246,   247,   248
   249,   250,   251,   252,   253,   409,   410,   411,   412,   413,   414,   415,   416,   417,   418,   419
   420,   421,   422,   423,   424,   425,   426,   427,   428,   429,   430,   431,   432,   433,   434,   435
   436,   437,   438,   439,   440,   441,   442,   443,   444,   445,   446,   447,   448,   449,   450,   451
   452,   453,   454,   455,   456,   457,   458,   459,   460,   461,   462,   463,   464,   465,   466,   467
   468,   469,   470,   471,   472,   473,   474,   475,   476,   477,   478,   479,   480,   481,   482,   483
   484,   485,   486,   487,   488,   489,   490,   491,   492,   493,   494,   495,   496,   497,   498,   499
** ... 2041 like lines cut
*Elset, elset=SET-PLATEWEB
   157,   158,   159,   160,   161,   162,   163,   164,   165,   166,   167,   168,   169,   170,   171,   172
   173,   174,   175,   176,   177,   178,   179,   180,   181,   182,   183,   184,   185,   186,   187,   188
   189,   190,   191,   192,   193,   194,   195,   196,   197,   198,   199,   200,   201,   202,   203,   204
   205,   206,   207,   208,   209,   210,   211,   212,   213,   214,   215,   216,   217,   218,   219,   220
   221,   222,   223,   224,   225,   226,   227,   228,   229,   230,   231,   232,   233,   234,   235,   236
   237,   238,   239,   240,   241,   242,   243,   244,   245,   246,   247,   248,   249,   250,   251,   252
   253,   254,   255,   256,   257,   258,   259,   260,   261,   262,   263,   264,   265,   266,   267,   268
   269,   270,   271,   272,   273,   274,   275,   276,   277,   278,   279,   280,   281,   282,   283,   284
   285,   286,   287,   288,   289,   290,   291,   292,   293,   294,   295,   296,   297,   298,   299,   300
   301,   302,   303,   304,   305,   306,   307,   308,   309,   310,   311,   312,   313,   314,   315,   316
   317,   318,   319,   320,   321,   322,   323,   324,   325,   326,   327,   328,   329,   330,   331,   332
   333,   334,   335,   336,   337,   338,   339,   340,   341,   342,   343,   344,   345,   346,   347,   348
   349,   350,   351,   352,   353,   354,   355,   356,   357,   358,   359,   360,   361,   362,   363,   364
   365,   366,   367,   368,   369,   370,   371,   372,   373,   374,   375,   376,   377,   378,   379,   380
   381,   382,   383,   384,   385,   386,   387,   388,   389,   390,   391,   392,   393,   394,   395,   396
   397,   398,   399,   400,   401,   402,   403,   404,   405,   406,   407,   408,   409,   410,   411,   412
   413,   414,   415,   416,   417,   418,   419,   420,   421,   422,   423,   424,   425,   426,   427,   428
   429,   430,   431,   432,   433,   434,   435,   436,   437,   438,   439,   440,   441,   442,   443,   444
   445,   446,   447,   448,   449,   450,   451,   452,   453,   454,   455,   456,   457,   458,   459,   460
   461,   462,   463,   464,   465,   466,   467,   468,   469,   470,   471,   472,   473,   474,   475,   476
** ... 2018 like lines cut
*Nset, nset=SET-FLANGE
    1,    2,    3,    4,   51,   52,   53,   54,   55,   56,   57,   58,   59,   60,   61,   62
   63,   64,   65,   66,   67,   68,   69,   70,   71,   72,   73,   74,   75,   76,   77,   78
   79,   80,   81,   82,   83,   84,   85,   86,   87,   88,   89,   90,   91,   92,   93,   94
   99,  100,  101,  102,  103,  104,  105,  106,  107,  108,  109,  110,  111,  112,  113,  114
  115,  116,  117,  118,  119,  120,  121,  122,  123,  124,  125,  126,  127,  128,  129,  130
  131,  132,  133,  134,  135,  136,  137,  138,  139,  140,  141,  142,  143,  144,  145,  146
  147,  148,  149,  150,  151,  152,  153,  154,  155,  156,  157,  158,  159,  160,  161,  162
  163,  164,  165,  166,  167,  168,  169,  170,  171,  172,  173,  174,  175,  176,  177,  178
  179,  180,  181,  182,  183,  184,  185,  186,  187,  188,  189,  190,  191,  192,  193,  194
  195,  196,  197,  198,  199,  200,  201,  202,  203,  204,  205,  206,  207,  208,  209,  210
  211,  212,  213,  214,  215,  216,  217,  218,  219,  220,  221,  222,  223,  224,  225,  226
  227,  228,  229,  230,  231,  232,  233,  234,  235,  236,  237,  238,  239,  240,  241,  242
  243,  244,  245,  246,  247,  248,  249,  250,  251,  252,  253,  254,  255,  256,  257,  258
  259,  260,  261,  262,  263,  264,  265,  266,  267,  268,  269,  270,  271,  272,  273,  274
  275,  276,  277,  278,  279,  280,  281,  282,  283,  284,  285,  286,  287,  288,  289,  290
  291,  292,  293,  294,  295,  296,  297,  298,  299,  300,  301,  302,  303,  304,  305,  306
  307,  308,  309,  310,  311,  312,  313,  314,  315,  316,  317,  318,  319,  320,  321,  322
  323,  324,  325,  326,  327,  328,  329,  330,  331,  332,  333,  334,  335,  336,  337,  338
  339,  340,  341,  342,  343,  344,  345,  346,  347,  348,  349,  350,  351,  352,  353,  354
  355,  356,  357,  358,  359,  360,  361,  362,  363,  364,  365,  366,  367,  368,  369,  370
** ... 216 like lines cut
*Elset, elset=SET-FLANGE
     1,     2,     3,     4,     5,     6,     7,     8,     9,    10,    11,    12,    13,    14,    15,    16
    17,    18,    19,    20,    21,    22,    23,    24,    25,    26,    27,    28,    29,    30,    31,    32
    33,    34,    35,    36,    37,    38,    39,    40,    41,    42,    43,    44,    45,    46,    47,    48
    49,    50,    51,    52,    53,    54,    55,    56,    57,    58,    59,    60,    61,    62,    63,    64
    65,    66,    67,    68,    69,    70,    71,    72,    73,    74,    75,    76,    77,    78,    79,    80
    81,    82,    83,    84,    85,    86,    87,    88,    89,    90,    91,    92,    93,    94,    95,    96
    97,    98,    99,   100,   101,   102,   103,   104,   105,   106,   107,   108,   109,   110,   111,   112
   113,   114,   115,   116,   117,   118,   119,   120,   121,   122,   123,   124,   125,   126,   127,   128
   129,   130,   131,   132,   133,   134,   135,   136,   137,   138,   139,   140,   141,   142,   143,   144
   145,   146,   147,   148,   149,   150,   151,   152,   153,   154,   155,   156, 24337, 24338, 24339, 24340
 24341, 24342, 24343, 24344, 24345, 24346, 24347, 24348, 24349, 24350, 24351, 24352, 24353, 24354, 24355, 24356
 24357, 24358, 24359, 24360, 24361, 24362, 24363, 24364, 24365, 24366, 24367, 24368, 24369, 24370, 24371, 24372
 24373, 24374, 24375, 24376, 24377, 24378, 24379, 24380, 24381, 24382, 24383, 24384, 24385, 24386, 24387, 24388
 24389, 24390, 24391, 24392, 24393, 24394, 24395, 24396, 24397, 24398, 24399, 24400, 24401, 24402, 24403, 24404
 24405, 24406, 24407, 24408, 24409, 24410, 24411, 24412, 24413, 24414, 24415, 24416, 24417, 24418, 24419, 24420
 24421, 24422, 24423, 24424, 24425, 24426, 24427, 24428, 24429, 24430, 24431, 24432, 24433, 24434, 24435, 24436
 24437, 24438, 24439, 24440, 24441, 24442, 24443, 24444, 24445, 24446, 24447, 24448, 24449, 24450, 24451, 24452
 24453, 24454, 24455, 24456, 24457, 24458, 24459, 24460, 24461, 24462, 24463, 24464, 24465, 24466, 24467, 24468
 24469, 24470, 24471, 24472, 24473, 24474, 24475, 24476, 24477, 24478, 24479, 24480, 24481, 24482, 24483, 24484
 24485, 24486, 24487, 24488, 24489, 24490, 24491, 24492, 24493, 24494, 24495, 24496, 24497, 24498, 24499, 24500
** ... 97 like lines cut
** Section: Section-1-SET-FLANGE
*Shell Section, elset=SET-FLANGE, material=MATERIAL-1
0.00887, 5
** Section: Section-2-SET-PLATEWEB
*Shell Section, elset=SET-PLATEWEB, material=MATERIAL-1
0.005, 5
*End Part
**  
**
** ASSEMBLY
**
*Assembly, name=Assembly
**  
*Instance, name=PART-1-1, part=PART-1-1
*End Instance
**  
*Nset, nset=SET-CENTER, instance=PART-1-1
 17417,
*Nset, nset=SET-NODE-95, instance=PART-1-1
 95,
*Nset, nset=SET-NODE-96, instance=PART-1-1
 96,
*Nset, nset=SET-NODE-97, instance=PART-1-1
 97,
*Nset, nset=SET-NODE-98, instance=PART-1-1
 98,
*Nset, nset=SET-NODE-6013, instance=PART-1-1
 6013,
*Nset, nset=SET-NODE-6014, instance=PART-1-1
 6014,
*Nset, nset=SET-NODE-6015, instance=PART-1-1
 6015,
*Nset, nset=SET-NODE-6016, instance=PART-1-1
 6016,
*Nset, nset=SET-NODE-6017, instance=PART-1-1
 6017,
*Nset, nset=SET-NODE-6018, instance=PART-1-1
 6018,
*Nset, nset=SET-NODE-6019, instance=PART-1-1
 6019,
*Nset, nset=SET-NODE-6020, instance=PART-1-1
 6020,
*Nset, nset=SET-NODE-6021, instance=PART-1-1
 6021,
*Nset, nset=SET-NODE-6022, instance=PART-1-1
 6022,
*Nset, nset=SET-NODE-6023, instance=PART-1-1
 6023,
*Nset, nset=SET-NODE-6024, instance=PART-1-1
 6024,
*Nset, nset=SET-NODE-6025, instance=PART-1-1
 6025,
*Nset, nset=SET-NODE-6026, instance=PART-1-1
 6026,
*Nset, nset=SET-NODE-6027, instance=PART-1-1
 6027,
*Nset, nset=SET-NODE-6028, instance=PART-1-1
** ... 589 like lines cut
*Nset, nset=SET-NOTORIGO, instance=PART-1-1
 98,
*Nset, nset=SET-ORIGO, instance=PART-1-1
 96,
*Nset, nset=SET-X0, instance=PART-1-1
    3,    4,    6,    8,    9,   12,   13,   16,   17,   20,   21,   24,   25,   28,   29,   32
   33,   36,   37,   40,   41,   44,   45,   48,   49,   52,   54,   57,   58,   61,   62,   65
   66,   69,   70,   73,   74,   77,   78,   81,   82,   85,   86,   89,   90,   93,   94,   96
   98,  567,  568,  569,  725,  726,  727,  728,  729,  730,  731,  732,  733,  734,  735,  736
  904,  905,  906,  907,  908,  909,  910,  911,  912,  913,  914, 1081, 1082, 1083, 1084, 1085
 1086, 1087, 1088, 1089, 1090, 1091, 1092, 1260, 1261, 1262, 1263, 1264, 1265, 1266, 1267, 1268
 1269, 1270, 1271, 1439, 1440, 1441, 1442, 1443, 1444, 1445, 1446, 1447, 1448, 1449, 1616, 1617
 1618, 1619, 1620, 1621, 1622, 1623, 1624, 1625, 1626, 1793, 1794, 1795, 1796, 1797, 1798, 1799
 1800, 1801, 1802, 1803, 1970, 1971, 1972, 1973, 1974, 1975, 1976, 1977, 1978, 1979, 1980, 2147
 2148, 2149, 2150, 2151, 2152, 2153, 2154, 2155, 2156, 2157, 2158, 2326, 2327, 2328, 2329, 2330
 2331, 2332, 2333, 2334, 2335, 2501, 2502, 2503, 2504, 2505, 2506, 2507, 2508, 2509, 2510, 2511
 2512, 2683, 2684, 2685, 3154, 3155, 3156, 3470, 3471, 3472, 3786, 3787, 3788, 4102, 4103, 4104
 4418, 4419, 4420, 4734, 4735, 4736, 5050, 5051, 5052, 5366, 5367, 5368, 5682, 5683, 5684, 5998
 5999, 6000, 6007, 6008, 6009, 6010, 6011, 6012, 6329, 6330, 6331, 6332, 6333, 6334
*Nset, nset=SET-X0PLATE, instance=PART-1-1
    6,    8,    9,   12,   13,   16,   17,   20,   21,   24,   25,   28,   29,   32,   33,   36
   37,   40,   41,   44,   45,   48,   49,   96,   98,  725,  726,  727,  728,  729,  730,  731
  732,  733,  734,  735,  736,  904,  905,  906,  907,  908,  909,  910,  911,  912,  913,  914
 1081, 1082, 1083, 1084, 1085, 1086, 1087, 1088, 1089, 1090, 1091, 1092, 1260, 1261, 1262, 1263
 1264, 1265, 1266, 1267, 1268, 1269, 1270, 1271, 1439, 1440, 1441, 1442, 1443, 1444, 1445, 1446
 1447, 1448, 1449, 1616, 1617, 1618, 1619, 1620, 1621, 1622, 1623, 1624, 1625, 1626, 1793, 1794
 1795, 1796, 1797, 1798, 1799, 1800, 1801, 1802, 1803, 1970, 1971, 1972, 1973, 1974, 1975, 1976
 1977, 1978, 1979, 1980, 2147, 2148, 2149, 2150, 2151, 2152, 2153, 2154, 2155, 2156, 2157, 2158
 2326, 2327, 2328, 2329, 2330, 2331, 2332, 2333, 2334, 2335, 2501, 2502, 2503, 2504, 2505, 2506
 2507, 2508, 2509, 2510, 2511, 2512, 6007, 6008, 6009, 6010, 6011, 6012, 6329, 6330, 6331, 6332
 6333, 6334
*Nset, nset=SET-X0STIF, instance=PART-1-1
    3,    4,   52,   54,   57,   58,   61,   62,   65,   66,   69,   70,   73,   74,   77,   78
   81,   82,   85,   86,   89,   90,   93,   94,  567,  568,  569, 2683, 2684, 2685, 3154, 3155
 3156, 3470, 3471, 3472, 3786, 3787, 3788, 4102, 4103, 4104, 4418, 4419, 4420, 4734, 4735, 4736
 5050, 5051, 5052, 5366, 5367, 5368, 5682, 5683, 5684, 5998, 5999, 6000
*Nset, nset=SET-XL, instance=PART-1-1
    1,    2,    5,    7,   10,   11,   14,   15,   18,   19,   22,   23,   26,   27,   30,   31
   34,   35,   38,   39,   42,   43,   46,   47,   50,   51,   53,   55,   56,   59,   60,   63
   64,   67,   68,   71,   72,   75,   76,   79,   80,   83,   84,   87,   88,   91,   92,   95
   97,  409,  410,  411,  737,  738,  739,  740,  741,  742,  743,  744,  745,  746,  747,  748
  915,  916,  917,  918,  919,  920,  921,  922,  923,  924,  925, 1093, 1094, 1095, 1096, 1097
 1098, 1099, 1100, 1101, 1102, 1103, 1104, 1272, 1273, 1274, 1275, 1276, 1277, 1278, 1279, 1280
 1281, 1282, 1283, 1450, 1451, 1452, 1453, 1454, 1455, 1456, 1457, 1458, 1459, 1460, 1627, 1628
 1629, 1630, 1631, 1632, 1633, 1634, 1635, 1636, 1637, 1804, 1805, 1806, 1807, 1808, 1809, 1810
 1811, 1812, 1813, 1814, 1981, 1982, 1983, 1984, 1985, 1986, 1987, 1988, 1989, 1990, 1991, 2159
 2160, 2161, 2162, 2163, 2164, 2165, 2166, 2167, 2168, 2169, 2170, 2336, 2337, 2338, 2339, 2340
 2341, 2342, 2343, 2344, 2345, 2513, 2514, 2515, 2516, 2517, 2518, 2519, 2520, 2521, 2522, 2523
 2524, 2525, 2526, 2527, 3151, 3152, 3153, 3467, 3468, 3469, 3783, 3784, 3785, 4099, 4100, 4101
 4415, 4416, 4417, 4731, 4732, 4733, 5047, 5048, 5049, 5363, 5364, 5365, 5679, 5680, 5681, 5995
 5996, 5997, 6001, 6002, 6003, 6004, 6005, 6006, 6168, 6169, 6170, 6171, 6172, 6173
*Nset, nset=SET-XLPLATE, instance=PART-1-1
    5,    7,   10,   11,   14,   15,   18,   19,   22,   23,   26,   27,   30,   31,   34,   35
   38,   39,   42,   43,   46,   47,   50,   95,   97,  737,  738,  739,  740,  741,  742,  743
  744,  745,  746,  747,  748,  915,  916,  917,  918,  919,  920,  921,  922,  923,  924,  925
 1093, 1094, 1095, 1096, 1097, 1098, 1099, 1100, 1101, 1102, 1103, 1104, 1272, 1273, 1274, 1275
 1276, 1277, 1278, 1279, 1280, 1281, 1282, 1283, 1450, 1451, 1452, 1453, 1454, 1455, 1456, 1457
 1458, 1459, 1460, 1627, 1628, 1629, 1630, 1631, 1632, 1633, 1634, 1635, 1636, 1637, 1804, 1805
 1806, 1807, 1808, 1809, 1810, 1811, 1812, 1813, 1814, 1981, 1982, 1983, 1984, 1985, 1986, 1987
 1988, 1989, 1990, 1991, 2159, 2160, 2161, 2162, 2163, 2164, 2165, 2166, 2167, 2168, 2169, 2170
 2336, 2337, 2338, 2339, 2340, 2341, 2342, 2343, 2344, 2345, 2513, 2514, 2515, 2516, 2517, 2518
 2519, 2520, 2521, 2522, 2523, 2524, 6001, 6002, 6003, 6004, 6005, 6006, 6168, 6169, 6170, 6171
 6172, 6173
*Nset, nset=SET-XLSTIF, instance=PART-1-1
    1,    2,   51,   53,   55,   56,   59,   60,   63,   64,   67,   68,   71,   72,   75,   76
   79,   80,   83,   84,   87,   88,   91,   92,  409,  410,  411, 2525, 2526, 2527, 3151, 3152
 3153, 3467, 3468, 3469, 3783, 3784, 3785, 4099, 4100, 4101, 4415, 4416, 4417, 4731, 4732, 4733
 5047, 5048, 5049, 5363, 5364, 5365, 5679, 5680, 5681, 5995, 5996, 5997
*Nset, nset=SET-Y0, instance=PART-1-1
   95,   96, 6013, 6014, 6015, 6016, 6017, 6018, 6019, 6020, 6021, 6022, 6023, 6024, 6025, 6026
 6027, 6028, 6029, 6030, 6031, 6032, 6033, 6034, 6035, 6036, 6037, 6038, 6039, 6040, 6041, 6042
 6043, 6044, 6045, 6046, 6047, 6048, 6049, 6050, 6051, 6052, 6053, 6054, 6055, 6056, 6057, 6058
 6059, 6060, 6061, 6062, 6063, 6064, 6065, 6066, 6067, 6068, 6069, 6070, 6071, 6072, 6073, 6074
 6075, 6076, 6077, 6078, 6079, 6080, 6081, 6082, 6083, 6084, 6085, 6086, 6087, 6088, 6089, 6090
 6091, 6092, 6093, 6094, 6095, 6096, 6097, 6098, 6099, 6100, 6101, 6102, 6103, 6104, 6105, 6106
 6107, 6108, 6109, 6110, 6111, 6112, 6113, 6114, 6115, 6116, 6117, 6118, 6119, 6120, 6121, 6122
 6123, 6124, 6125, 6126, 6127, 6128, 6129, 6130, 6131, 6132, 6133, 6134, 6135, 6136, 6137, 6138
 6139, 6140, 6141, 6142, 6143, 6144, 6145, 6146, 6147, 6148, 6149, 6150, 6151, 6152, 6153, 6154
 6155, 6156, 6157, 6158, 6159, 6160, 6161, 6162, 6163, 6164, 6165, 6166, 6167
*Nset, nset=SET-YS, instance=PART-1-1
   97,   98, 6174, 6175, 6176, 6177, 6178, 6179, 6180, 6181, 6182, 6183, 6184, 6185, 6186, 6187
 6188, 6189, 6190, 6191, 6192, 6193, 6194, 6195, 6196, 6197, 6198, 6199, 6200, 6201, 6202, 6203
 6204, 6205, 6206, 6207, 6208, 6209, 6210, 6211, 6212, 6213, 6214, 6215, 6216, 6217, 6218, 6219
 6220, 6221, 6222, 6223, 6224, 6225, 6226, 6227, 6228, 6229, 6230, 6231, 6232, 6233, 6234, 6235
 6236, 6237, 6238, 6239, 6240, 6241, 6242, 6243, 6244, 6245, 6246, 6247, 6248, 6249, 6250, 6251
 6252, 6253, 6254, 6255, 6256, 6257, 6258, 6259, 6260, 6261, 6262, 6263, 6264, 6265, 6266, 6267
 6268, 6269, 6270, 6271, 6272, 6273, 6274, 6275, 6276, 6277, 6278, 6279, 6280, 6281, 6282, 6283
 6284, 6285, 6286, 6287, 6288, 6289, 6290, 6291, 6292, 6293, 6294, 6295, 6296, 6297, 6298, 6299
 6300, 6301, 6302, 6303, 6304, 6305, 6306, 6307, 6308, 6309, 6310, 6311, 6312, 6313, 6314, 6315
 6316, 6317, 6318, 6319, 6320, 6321, 6322, 6323, 6324, 6325, 6326, 6327, 6328
*End Assembly
** 
** MATERIALS
** 
*Material, name=MATERIAL-1
*Elastic
 2.06e+11, 0.3
** 
** BOUNDARY CONDITIONS
** 
** Name: BC-1 Type: Displacement/Rotation
*Boundary
SET-CENTER, 2, 2
** Name: BC-2 Type: Displacement/Rotation
*Boundary
SET-X0PLATE, 1, 1
SET-X0PLATE, 3, 3
** Name: BC-3 Type: Displacement/Rotation
*Boundary
SET-Y0, 3, 3
** Name: BC-4 Type: Displacement/Rotation
*Boundary
SET-YS, 3, 3
** ----------------------------------------------------------------
** 
** STEP: Step-1
** 
*Step, name=Step-1, nlgeom=YES
*Static, riks
0.001, 1., 1e-10, 0.02, 1., 
** 
** BOUNDARY CONDITIONS
** 
** Name: BC-5 Type: Displacement/Rotation
*Boundary
SET-XLPLATE, 1, 1, 0.015
SET-XLPLATE, 3, 3
** 
** OUTPUT REQUESTS
** 
*Restart, write, frequency=0
** 
** FIELD OUTPUT: F-Output-1
** 
*Output, field
*Node Output
RF, U
*Element Output, directions=YES
E, S, SE, SF
*Output, history, frequency=0
*End Step
